61

C -1.454300046 -3.918600082 -1.750000000
C -0.767499983 -5.133600235 -1.750000000
C 0.627600074 -5.189599991 -1.750000000
C 1.388900042 -4.023700237 -1.750000000
C 2.382200003 -0.682600021 -1.750000000
C 1.454300046 3.918600082 -1.750000000
C 0.767500043 5.133600235 -1.750000000
C -0.627600014 5.189599991 -1.750000000
C -1.388900042 4.023699760 -1.750000000
C -2.382200003 0.682600021 -1.750000000
C 0.736800075 -2.796499968 -1.750000000
C -0.691100001 -2.765399933 -1.750000000
C 1.214100003 -1.411299944 -1.750000000
C 0.016499996 -0.666500092 -1.750000000
N -1.119400024 -1.413800001 -1.750000000
C -0.016499996 0.666500092 -1.750000000
C -1.214100003 1.411299706 -1.750000000
N 1.119400024 1.413800240 -1.750000000
C 2.405600071 0.794099808 -1.750000000
C -2.405600071 -0.794099808 -1.750000000
C 0.691100001 2.765399933 -1.750000000
C -0.736800015 2.796500206 -1.750000000
O 3.428400040 1.466799736 -1.750000000
O -3.428400040 -1.466799974 -1.750000000
C -0.854300022 -4.318600178 1.750000000
C -0.167499989 -5.533599854 1.750000000
C 1.227599978 -5.589600086 1.750000000
C 1.988899946 -4.423699856 1.750000000
C 2.982199907 -1.082600117 1.750000000
C 2.054300070 3.518599510 1.750000000
C 1.367499948 4.733599663 1.750000000
C -0.027599990 4.789599419 1.750000000
C -0.788900018 3.623700142 1.750000000
C -1.782199979 0.282599926 1.750000000
C 1.336799979 -3.196500063 1.750000000
C -0.091100007 -3.165400028 1.750000000
C 1.814100027 -1.811300039 1.750000000
C 0.616500020 -1.066499710 1.750000000
N -0.519400001 -1.813799858 1.750000000
C 0.583500028 0.266499996 1.750000000
C -0.614099979 1.011300087 1.750000000
N 1.719400167 1.013800144 1.750000000
C 3.005599976 0.394100189 1.750000000
C -1.805600047 -1.194099903 1.750000000
C 1.291100025 2.365400314 1.750000000
C -0.136800021 2.396500111 1.750000000
O 4.028399944 1.066800117 1.750000000
O -2.828399897 -1.866799831 1.750000000
O 1.625300169 6.898099899 -0.369199991
C 2.161000013 6.010100365 1.737100005
N 2.605000019 6.288000107 0.384200007
C 1.542000055 6.418900490 -1.690700054
C -1.230298400 -7.448387623 -0.787931323
C -0.976710439 -8.704533577 -1.589268804
C -1.557390213 -6.376366615 -1.766991496
O -2.584669828 -6.492067814 -2.489748001
C -0.935525298 -6.788042068 1.618627310
N -1.840813518 -7.014402866 0.523570836
C -0.034321815 -8.299204826 -0.574206471
N -3.066095114 -6.323516369 0.586738586
O -0.784987509 -7.701982975 2.471760750
