95
samples_1000_with_h/zinc/R_2_R_2prime/out_0172.mol
C         -1.45430       -3.91860       -1.75000
C         -0.76750       -5.13360       -1.75000
C          0.62760       -5.18960       -1.75000
C          1.38890       -4.02370       -1.75000
C          2.38220       -0.68260       -1.75000
C          1.45430        3.91860       -1.75000
C          0.76750        5.13360       -1.75000
C         -0.62760        5.18960       -1.75000
C         -1.38890        4.02370       -1.75000
C         -2.38220        0.68260       -1.75000
C          0.73680       -2.79650       -1.75000
C         -0.69110       -2.76540       -1.75000
C          1.21410       -1.41130       -1.75000
C          0.01650       -0.66650       -1.75000
N         -1.11940       -1.41380       -1.75000
C         -0.01650        0.66650       -1.75000
C         -1.21410        1.41130       -1.75000
N          1.11940        1.41380       -1.75000
C          2.40560        0.79410       -1.75000
C         -2.40560       -0.79410       -1.75000
C          0.69110        2.76540       -1.75000
C         -0.73680        2.79650       -1.75000
O          3.42840        1.46680       -1.75000
O         -3.42840       -1.46680       -1.75000
C         -0.85430       -4.31860        1.75000
C         -0.16750       -5.53360        1.75000
C          1.22760       -5.58960        1.75000
C          1.98890       -4.42370        1.75000
C          2.98220       -1.08260        1.75000
C          2.05430        3.51860        1.75000
C          1.36750        4.73360        1.75000
C         -0.02760        4.78960        1.75000
C         -0.78890        3.62370        1.75000
C         -1.78220        0.28260        1.75000
C          1.33680       -3.19650        1.75000
C         -0.09110       -3.16540        1.75000
C          1.81410       -1.81130        1.75000
C          0.61650       -1.06650        1.75000
N         -0.51940       -1.81380        1.75000
C          0.58350        0.26650        1.75000
C         -0.61410        1.01130        1.75000
N          1.71940        1.01380        1.75000
C          3.00560        0.39410        1.75000
C         -1.80560       -1.19410        1.75000
C          1.29110        2.36540        1.75000
C         -0.13680        2.39650        1.75000
O          4.02840        1.06680        1.75000
O         -2.82840       -1.86680        1.75000
O          1.62530        6.89810       -0.36920
C          2.16100        6.01010        1.73710
N          2.60500        6.28800        0.38420
C          1.54200        6.41890       -1.69070
N         -1.38490       -7.20750       -0.63020
O         -1.08940       -7.18460       -2.93310
C         -0.96540       -6.81750        1.88140
C         -1.53650       -6.46340       -1.84710
C         -4.00780       -7.19230       -1.30630
C         -3.06820       -6.29180       -1.95510
C         -0.61290       -8.37900       -0.29720
C         -0.46590       -7.94360        2.81590
C         -0.98030       -7.42610        0.57260
H         -2.48570       -3.88240       -1.75000
H          1.10060       -6.10680       -1.75000
H          2.41990       -4.07010       -1.75000
H          2.48570        3.88240       -1.75000
H         -1.10060        6.10680       -1.75000
H         -2.41990        4.07010       -1.75000
H         -1.88570       -4.28240        1.75000
H          1.70060       -6.50680        1.75000
H          3.01990       -4.47010        1.75000
H          3.08570        3.48240        1.75000
H         -0.50060        5.70680        1.75000
H         -1.81990        3.67010        1.75000
H          3.28063       -1.19039       -1.75000
H         -3.28063        1.19039       -1.75000
H          3.88063       -1.59039        1.75000
H         -2.68063        0.79039        1.75000
H          3.01166        5.90811        2.37810
H          1.54807        6.81539        2.08455
H          3.41849        6.90199        0.42484
H          1.05189        7.15095       -2.29799
H          2.53321        6.23617       -2.04987
H         -0.12780       -7.29692       -2.87295
H         -1.88756       -6.48347        2.30912
H         -5.00816       -6.87858       -1.52020
H         -3.84679       -7.17424       -0.24864
H         -3.85981       -8.18667       -1.67268
H         -3.29719       -6.32735       -2.99970
H         -3.22400       -5.38516       -1.40863
H          0.40590       -8.47136       -0.61090
H         -0.71843       -9.43982       -0.38898
H          0.46150       -8.32864        2.44635
H         -1.19138       -8.72949        2.84681
H         -0.32217       -7.55193        3.80121
H         -0.93356       -7.24077        1.62539
