86
samples_1000_with_h/geom/R_2_R_2prime/out_0653.mol
C         -1.45430       -3.91860       -1.75000
C         -0.76750       -5.13360       -1.75000
C          0.62760       -5.18960       -1.75000
C          1.38890       -4.02370       -1.75000
C          2.38220       -0.68260       -1.75000
C          1.45430        3.91860       -1.75000
C          0.76750        5.13360       -1.75000
C         -0.62760        5.18960       -1.75000
C         -1.38890        4.02370       -1.75000
C         -2.38220        0.68260       -1.75000
C          0.73680       -2.79650       -1.75000
C         -0.69110       -2.76540       -1.75000
C          1.21410       -1.41130       -1.75000
C          0.01650       -0.66650       -1.75000
N         -1.11940       -1.41380       -1.75000
C         -0.01650        0.66650       -1.75000
C         -1.21410        1.41130       -1.75000
N          1.11940        1.41380       -1.75000
C          2.40560        0.79410       -1.75000
C         -2.40560       -0.79410       -1.75000
C          0.69110        2.76540       -1.75000
C         -0.73680        2.79650       -1.75000
O          3.42840        1.46680       -1.75000
O         -3.42840       -1.46680       -1.75000
C         -0.85430       -4.31860        1.75000
C         -0.16750       -5.53360        1.75000
C          1.22760       -5.58960        1.75000
C          1.98890       -4.42370        1.75000
C          2.98220       -1.08260        1.75000
C          2.05430        3.51860        1.75000
C          1.36750        4.73360        1.75000
C         -0.02760        4.78960        1.75000
C         -0.78890        3.62370        1.75000
C         -1.78220        0.28260        1.75000
C          1.33680       -3.19650        1.75000
C         -0.09110       -3.16540        1.75000
C          1.81410       -1.81130        1.75000
C          0.61650       -1.06650        1.75000
N         -0.51940       -1.81380        1.75000
C          0.58350        0.26650        1.75000
C         -0.61410        1.01130        1.75000
N          1.71940        1.01380        1.75000
C          3.00560        0.39410        1.75000
C         -1.80560       -1.19410        1.75000
C          1.29110        2.36540        1.75000
C         -0.13680        2.39650        1.75000
O          4.02840        1.06680        1.75000
O         -2.82840       -1.86680        1.75000
C          1.58090        6.41720       -1.73050
N          2.46540        6.48050       -0.55200
C          2.15300        6.03430        1.74840
N          1.79370        6.89680        0.61830
C         -1.09430       -7.45970        0.39400
C         -0.95280       -6.82020        1.78640
C         -1.59270       -6.39220       -1.82900
C         -2.16960       -6.76790       -0.45100
H         -2.48570       -3.88240       -1.75000
H          1.10060       -6.10680       -1.75000
H          2.41990       -4.07010       -1.75000
H          2.48570        3.88240       -1.75000
H         -1.10060        6.10680       -1.75000
H         -2.41990        4.07010       -1.75000
H         -1.88570       -4.28240        1.75000
H          1.70060       -6.50680        1.75000
H          3.01990       -4.47010        1.75000
H          3.08570        3.48240        1.75000
H         -0.50060        5.70680        1.75000
H         -1.81990        3.67010        1.75000
H          3.28063       -1.19039       -1.75000
H         -3.28063        1.19039       -1.75000
H          3.88063       -1.59039        1.75000
H         -2.68063        0.79039        1.75000
H          0.91201        7.25205       -1.70809
H          2.19115        6.44056       -2.60910
H          3.21943        7.13940       -0.74616
H          3.19681        5.80644        1.68977
H          1.91937        6.56030        2.65042
H          0.78674        6.84622        0.46382
H         -1.35832       -8.48982        0.51256
H         -0.15818       -7.35505       -0.11357
H         -1.92986       -6.61579        2.17171
H         -0.42216       -7.50917        2.40981
H         -0.97521       -7.19294       -2.17888
H         -2.40691       -6.22165       -2.50196
H         -2.99872       -7.43135       -0.58246
H         -2.49310       -5.87923        0.04951
