77
samples_1000_with_h/geom/R_2/out_0009.mol
C         -1.45430       -3.91860       -1.75000
C         -0.76750       -5.13360       -1.75000
C          0.62760       -5.18960       -1.75000
C          1.38890       -4.02370       -1.75000
C          2.38220       -0.68260       -1.75000
C          1.45430        3.91860       -1.75000
C          0.76750        5.13360       -1.75000
C         -0.62760        5.18960       -1.75000
C         -1.38890        4.02370       -1.75000
C         -2.38220        0.68260       -1.75000
C          0.73680       -2.79650       -1.75000
C         -0.69110       -2.76540       -1.75000
C          1.21410       -1.41130       -1.75000
C          0.01650       -0.66650       -1.75000
N         -1.11940       -1.41380       -1.75000
C         -0.01650        0.66650       -1.75000
C         -1.21410        1.41130       -1.75000
N          1.11940        1.41380       -1.75000
C          2.40560        0.79410       -1.75000
C         -2.40560       -0.79410       -1.75000
C          0.69110        2.76540       -1.75000
C         -0.73680        2.79650       -1.75000
O          3.42840        1.46680       -1.75000
O         -3.42840       -1.46680       -1.75000
C         -0.85430       -4.31860        1.75000
C         -0.16750       -5.53360        1.75000
C          1.22760       -5.58960        1.75000
C          1.98890       -4.42370        1.75000
C          2.98220       -1.08260        1.75000
C          2.05430        3.51860        1.75000
C          1.36750        4.73360        1.75000
C         -0.02760        4.78960        1.75000
C         -0.78890        3.62370        1.75000
C         -1.78220        0.28260        1.75000
C          1.33680       -3.19650        1.75000
C         -0.09110       -3.16540        1.75000
C          1.81410       -1.81130        1.75000
C          0.61650       -1.06650        1.75000
N         -0.51940       -1.81380        1.75000
C          0.58350        0.26650        1.75000
C         -0.61410        1.01130        1.75000
N          1.71940        1.01380        1.75000
C          3.00560        0.39410        1.75000
C         -1.80560       -1.19410        1.75000
C          1.29110        2.36540        1.75000
C         -0.13680        2.39650        1.75000
O          4.02840        1.06680        1.75000
O         -2.82840       -1.86680        1.75000
N          2.57400        6.39640        0.44130
C          2.17490        6.01120        1.77200
C          1.52560        6.43680       -1.76440
C          1.53360        7.02800       -0.33320
H         -2.48570       -3.88240       -1.75000
H          1.10060       -6.10680       -1.75000
H          2.41990       -4.07010       -1.75000
H          2.48570        3.88240       -1.75000
H         -1.10060        6.10680       -1.75000
H         -2.41990        4.07010       -1.75000
H         -1.88570       -4.28240        1.75000
H          1.70060       -6.50680        1.75000
H          3.01990       -4.47010        1.75000
H          3.08570        3.48240        1.75000
H         -0.50060        5.70680        1.75000
H         -1.81990        3.67010        1.75000
H         -1.30534       -6.01437       -1.75000
H          3.28063       -1.19039       -1.75000
H         -3.28063        1.19039       -1.75000
H         -0.70534       -6.41437        1.75000
H          3.88063       -1.59039        1.75000
H         -2.68063        0.79039        1.75000
H          2.87802        5.55909       -0.05558
H          3.04977        5.86137        2.36954
H          1.56722        6.79001        2.18319
H          1.04892        7.12229       -2.43356
H          2.52994        6.26845       -2.09282
H          0.58593        6.85135        0.13114
H          1.71509        8.08132       -0.38303
