77
samples_1000_with_h/geom/R_2/out_1003.mol
C         -1.45430       -3.91860       -1.75000
C         -0.76750       -5.13360       -1.75000
C          0.62760       -5.18960       -1.75000
C          1.38890       -4.02370       -1.75000
C          2.38220       -0.68260       -1.75000
C          1.45430        3.91860       -1.75000
C          0.76750        5.13360       -1.75000
C         -0.62760        5.18960       -1.75000
C         -1.38890        4.02370       -1.75000
C         -2.38220        0.68260       -1.75000
C          0.73680       -2.79650       -1.75000
C         -0.69110       -2.76540       -1.75000
C          1.21410       -1.41130       -1.75000
C          0.01650       -0.66650       -1.75000
N         -1.11940       -1.41380       -1.75000
C         -0.01650        0.66650       -1.75000
C         -1.21410        1.41130       -1.75000
N          1.11940        1.41380       -1.75000
C          2.40560        0.79410       -1.75000
C         -2.40560       -0.79410       -1.75000
C          0.69110        2.76540       -1.75000
C         -0.73680        2.79650       -1.75000
O          3.42840        1.46680       -1.75000
O         -3.42840       -1.46680       -1.75000
C         -0.85430       -4.31860        1.75000
C         -0.16750       -5.53360        1.75000
C          1.22760       -5.58960        1.75000
C          1.98890       -4.42370        1.75000
C          2.98220       -1.08260        1.75000
C          2.05430        3.51860        1.75000
C          1.36750        4.73360        1.75000
C         -0.02760        4.78960        1.75000
C         -0.78890        3.62370        1.75000
C         -1.78220        0.28260        1.75000
C          1.33680       -3.19650        1.75000
C         -0.09110       -3.16540        1.75000
C          1.81410       -1.81130        1.75000
C          0.61650       -1.06650        1.75000
N         -0.51940       -1.81380        1.75000
C          0.58350        0.26650        1.75000
C         -0.61410        1.01130        1.75000
N          1.71940        1.01380        1.75000
C          3.00560        0.39410        1.75000
C         -1.80560       -1.19410        1.75000
C          1.29110        2.36540        1.75000
C         -0.13680        2.39650        1.75000
O          4.02840        1.06680        1.75000
O         -2.82840       -1.86680        1.75000
C          1.51440        6.44280       -1.66230
N          1.22350        6.98400       -0.33430
C          2.16210        6.01950        1.82510
C          2.06610        6.80070        0.57950
H         -2.48570       -3.88240       -1.75000
H          1.10060       -6.10680       -1.75000
H          2.41990       -4.07010       -1.75000
H          2.48570        3.88240       -1.75000
H         -1.10060        6.10680       -1.75000
H         -2.41990        4.07010       -1.75000
H         -1.88570       -4.28240        1.75000
H          1.70060       -6.50680        1.75000
H          3.01990       -4.47010        1.75000
H          3.08570        3.48240        1.75000
H         -0.50060        5.70680        1.75000
H         -1.81990        3.67010        1.75000
H         -1.30534       -6.01437       -1.75000
H          3.28063       -1.19039       -1.75000
H         -3.28063        1.19039       -1.75000
H         -0.70534       -6.41437        1.75000
H          3.88063       -1.59039        1.75000
H         -2.68063        0.79039        1.75000
H          1.17460        7.11640       -2.42105
H          2.56545        6.30530       -1.80822
H          0.34550        6.56788       -0.02390
H          3.18951        5.78080        2.00494
H          1.75794        6.61208        2.61908
H          2.24234        7.79771        0.92565
H          2.63428        6.09496        0.01028
