57

C -1.454299927 -3.918600082 -1.750000000
C -0.767499924 -5.133600235 -1.750000000
C 0.627599955 -5.189599991 -1.750000000
C 1.388900042 -4.023700237 -1.750000000
C 2.382200003 -0.682600021 -1.750000000
C 1.454300046 3.918599844 -1.750000000
C 0.767499924 5.133600235 -1.750000000
C -0.627599955 5.189599991 -1.750000000
C -1.388900280 4.023700237 -1.750000000
C -2.382199764 0.682600081 -1.750000000
C 0.736799955 -2.796499968 -1.750000000
C -0.691100121 -2.765399933 -1.750000000
C 1.214100003 -1.411299944 -1.750000000
C 0.016499996 -0.666499972 -1.750000000
N -1.119400024 -1.413800001 -1.750000000
C -0.016499996 0.666499913 -1.750000000
C -1.214099884 1.411299944 -1.750000000
N 1.119400024 1.413800001 -1.750000000
C 2.405600071 0.794099987 -1.750000000
C -2.405600071 -0.794099987 -1.750000000
C 0.691100001 2.765399933 -1.750000000
C -0.736799955 2.796499968 -1.750000000
O 3.428400040 1.466799974 -1.750000000
O -3.428400040 -1.466799974 -1.750000000
C -0.854300022 -4.318600178 1.750000000
C -0.167500019 -5.533599854 1.750000000
C 1.227599978 -5.589600086 1.750000000
C 1.988899946 -4.423699856 1.750000000
C 2.982199907 -1.082599998 1.750000000
C 2.054300070 3.518599749 1.750000000
C 1.367499948 4.733600140 1.750000000
C -0.027600050 4.789599895 1.750000000
C -0.788899899 3.623699903 1.750000000
C -1.782199860 0.282599986 1.750000000
C 1.336799979 -3.196500063 1.750000000
C -0.091099977 -3.165400028 1.750000000
C 1.814100027 -1.811300039 1.750000000
C 0.616499901 -1.066499949 1.750000000
N -0.519400120 -1.813799977 1.750000000
C 0.583499908 0.266500056 1.750000000
C -0.614099979 1.011299849 1.750000000
N 1.719400048 1.013799906 1.750000000
C 3.005599976 0.394100010 1.750000000
C -1.805600166 -1.194100022 1.750000000
C 1.291100025 2.365400076 1.750000000
C -0.136800051 2.396500111 1.750000000
O 4.028399944 1.066799879 1.750000000
O -2.828400135 -1.866799951 1.750000000
C 4.452265739 -2.580632448 0.339906245
O 4.661806107 -3.811536312 0.489186078
C 3.711685658 -1.339822292 -1.931671381
C 4.301414490 -1.777363658 1.598038316
N 4.203915119 -1.059473515 -3.191634893
C 5.450257301 -1.335129261 -3.566815853
C 5.901795387 -2.288346291 -1.512340307
N 6.343456268 -1.916797638 -2.720913887
C 4.597809792 -2.032586336 -1.036208510
