77
samples_1000_with_h/zinc/R_5/out_0427.mol
C         -1.45430       -3.91860       -1.75000
C         -0.76750       -5.13360       -1.75000
C          0.62760       -5.18960       -1.75000
C          1.38890       -4.02370       -1.75000
C          2.38220       -0.68260       -1.75000
C          1.45430        3.91860       -1.75000
C          0.76750        5.13360       -1.75000
C         -0.62760        5.18960       -1.75000
C         -1.38890        4.02370       -1.75000
C         -2.38220        0.68260       -1.75000
C          0.73680       -2.79650       -1.75000
C         -0.69110       -2.76540       -1.75000
C          1.21410       -1.41130       -1.75000
C          0.01650       -0.66650       -1.75000
N         -1.11940       -1.41380       -1.75000
C         -0.01650        0.66650       -1.75000
C         -1.21410        1.41130       -1.75000
N          1.11940        1.41380       -1.75000
C          2.40560        0.79410       -1.75000
C         -2.40560       -0.79410       -1.75000
C          0.69110        2.76540       -1.75000
C         -0.73680        2.79650       -1.75000
O          3.42840        1.46680       -1.75000
O         -3.42840       -1.46680       -1.75000
C         -0.85430       -4.31860        1.75000
C         -0.16750       -5.53360        1.75000
C          1.22760       -5.58960        1.75000
C          1.98890       -4.42370        1.75000
C          2.98220       -1.08260        1.75000
C          2.05430        3.51860        1.75000
C          1.36750        4.73360        1.75000
C         -0.02760        4.78960        1.75000
C         -0.78890        3.62370        1.75000
C         -1.78220        0.28260        1.75000
C          1.33680       -3.19650        1.75000
C         -0.09110       -3.16540        1.75000
C          1.81410       -1.81130        1.75000
C          0.61650       -1.06650        1.75000
N         -0.51940       -1.81380        1.75000
C          0.58350        0.26650        1.75000
C         -0.61410        1.01130        1.75000
N          1.71940        1.01380        1.75000
C          3.00560        0.39410        1.75000
C         -1.80560       -1.19410        1.75000
C          1.29110        2.36540        1.75000
C         -0.13680        2.39650        1.75000
O          4.02840        1.06680        1.75000
O         -2.82840       -1.86680        1.75000
C          3.68530       -1.42910       -1.95700
N          4.00370       -2.31620       -0.84430
C          4.29020       -1.83180        1.58150
C          4.86710       -1.68900        0.16040
H         -2.48570       -3.88240       -1.75000
H          1.10060       -6.10680       -1.75000
H          2.41990       -4.07010       -1.75000
H          2.48570        3.88240       -1.75000
H         -1.10060        6.10680       -1.75000
H         -2.41990        4.07010       -1.75000
H         -1.88570       -4.28240        1.75000
H          1.70060       -6.50680        1.75000
H          3.01990       -4.47010        1.75000
H          3.08570        3.48240        1.75000
H         -0.50060        5.70680        1.75000
H         -1.81990        3.67010        1.75000
H         -1.30534       -6.01437       -1.75000
H          1.30534        6.01437       -1.75000
H         -3.28063        1.19039       -1.75000
H         -0.70534       -6.41437        1.75000
H          1.90534        5.61437        1.75000
H         -2.68063        0.79039        1.75000
H          4.47585       -0.71609       -2.06442
H          3.57822       -2.03298       -2.83379
H          4.47872       -3.14065       -1.21177
H          4.12069       -2.86921        1.78137
H          4.99799       -1.41246        2.26567
H          4.96690       -0.64882       -0.06975
H          5.81666       -2.18161        0.13640
