55

C -1.454300046 -3.918600321 -1.750000000
C -0.767499924 -5.133600235 -1.750000000
C 0.627599955 -5.189599991 -1.750000000
C 1.388900042 -4.023700237 -1.750000000
C 2.382200241 -0.682600021 -1.750000000
C 1.454299927 3.918600082 -1.750000000
C 0.767499924 5.133600235 -1.750000000
C -0.627599955 5.189599991 -1.750000000
C -1.388900042 4.023700237 -1.750000000
C -2.382200003 0.682600021 -1.750000000
C 0.736799955 -2.796499968 -1.750000000
C -0.691100001 -2.765399933 -1.750000000
C 1.214099884 -1.411299944 -1.750000000
C 0.016499996 -0.666499972 -1.750000000
N -1.119400024 -1.413800001 -1.750000000
C -0.016499996 0.666499972 -1.750000000
C -1.214100003 1.411299944 -1.750000000
N 1.119400024 1.413800001 -1.750000000
C 2.405600071 0.794099987 -1.750000000
C -2.405600071 -0.794100046 -1.750000000
C 0.691100121 2.765399933 -1.750000000
C -0.736799955 2.796499968 -1.750000000
O 3.428400040 1.466799974 -1.750000000
O -3.428400040 -1.466799974 -1.750000000
C -0.854300022 -4.318600178 1.750000000
C -0.167500019 -5.533599854 1.750000000
C 1.227600098 -5.589600086 1.750000000
C 1.988900185 -4.423699856 1.750000000
C 2.982199669 -1.082599998 1.750000000
C 2.054300308 3.518599987 1.750000000
C 1.367499828 4.733600140 1.750000000
C -0.027600050 4.789599895 1.750000000
C -0.788900018 3.623699903 1.750000000
C -1.782199979 0.282599986 1.750000000
C 1.336800098 -3.196500063 1.750000000
C -0.091099977 -3.165400028 1.750000000
C 1.814100027 -1.811300039 1.750000000
C 0.616499901 -1.066499949 1.750000000
N -0.519400001 -1.813800097 1.750000000
C 0.583499908 0.266499996 1.750000000
C -0.614099979 1.011299968 1.750000000
N 1.719399929 1.013800025 1.750000000
C 3.005599976 0.394100010 1.750000000
C -1.805600047 -1.194100022 1.750000000
C 1.291100025 2.365400076 1.750000000
C -0.136800051 2.396500111 1.750000000
O 4.028399944 1.066799998 1.750000000
O -2.828399897 -1.866800070 1.750000000
N 4.207799911 -1.722500086 1.631500006
N 3.549900055 -1.362300038 -1.744799972
C 4.624300003 -1.097200036 -0.778299987
C 4.638299942 -2.180399895 0.312700003
S -3.312053680 1.117356062 1.684905767
C -4.146065235 0.418737769 0.272229612
S -3.895704985 1.424827099 -1.247020245
