88
samples_1000_with_h/zinc/R_5_R_5prime/out_0538.mol
C         -1.45430       -3.91860       -1.75000
C         -0.76750       -5.13360       -1.75000
C          0.62760       -5.18960       -1.75000
C          1.38890       -4.02370       -1.75000
C          2.38220       -0.68260       -1.75000
C          1.45430        3.91860       -1.75000
C          0.76750        5.13360       -1.75000
C         -0.62760        5.18960       -1.75000
C         -1.38890        4.02370       -1.75000
C         -2.38220        0.68260       -1.75000
C          0.73680       -2.79650       -1.75000
C         -0.69110       -2.76540       -1.75000
C          1.21410       -1.41130       -1.75000
C          0.01650       -0.66650       -1.75000
N         -1.11940       -1.41380       -1.75000
C         -0.01650        0.66650       -1.75000
C         -1.21410        1.41130       -1.75000
N          1.11940        1.41380       -1.75000
C          2.40560        0.79410       -1.75000
C         -2.40560       -0.79410       -1.75000
C          0.69110        2.76540       -1.75000
C         -0.73680        2.79650       -1.75000
O          3.42840        1.46680       -1.75000
O         -3.42840       -1.46680       -1.75000
C         -0.85430       -4.31860        1.75000
C         -0.16750       -5.53360        1.75000
C          1.22760       -5.58960        1.75000
C          1.98890       -4.42370        1.75000
C          2.98220       -1.08260        1.75000
C          2.05430        3.51860        1.75000
C          1.36750        4.73360        1.75000
C         -0.02760        4.78960        1.75000
C         -0.78890        3.62370        1.75000
C         -1.78220        0.28260        1.75000
C          1.33680       -3.19650        1.75000
C         -0.09110       -3.16540        1.75000
C          1.81410       -1.81130        1.75000
C          0.61650       -1.06650        1.75000
N         -0.51940       -1.81380        1.75000
C          0.58350        0.26650        1.75000
C         -0.61410        1.01130        1.75000
N          1.71940        1.01380        1.75000
C          3.00560        0.39410        1.75000
C         -1.80560       -1.19410        1.75000
C          1.29110        2.36540        1.75000
C         -0.13680        2.39650        1.75000
O          4.02840        1.06680        1.75000
O         -2.82840       -1.86680        1.75000
N          4.56900       -1.03330       -0.67730
C          4.87490       -2.05470        0.30030
C          3.70500       -1.42240       -1.77830
C          4.30020       -1.82310        1.69280
C         -3.51300        1.26440        3.24100
C         -4.07090        0.76230        0.85830
N         -3.04470        0.95970        1.89220
O         -4.01440        3.04110        0.17720
C         -3.95970        1.83010       -0.18430
C         -3.68790        1.42920       -1.60120
H         -2.48570       -3.88240       -1.75000
H          1.10060       -6.10680       -1.75000
H          2.41990       -4.07010       -1.75000
H          2.48570        3.88240       -1.75000
H         -1.10060        6.10680       -1.75000
H         -2.41990        4.07010       -1.75000
H         -1.88570       -4.28240        1.75000
H          1.70060       -6.50680        1.75000
H          3.01990       -4.47010        1.75000
H          3.08570        3.48240        1.75000
H         -0.50060        5.70680        1.75000
H         -1.81990        3.67010        1.75000
H         -1.30534       -6.01437       -1.75000
H          1.30534        6.01437       -1.75000
H         -0.70534       -6.41437        1.75000
H          1.90534        5.61437        1.75000
H          5.45150       -0.71224       -1.07544
H          5.93933       -2.11769        0.38924
H          4.41839       -2.95272       -0.06034
H          4.20218       -1.20623       -2.70079
H          3.50097       -2.46861       -1.68489
H          4.15910       -2.77911        2.15218
H          5.00613       -1.19617        2.19630
H         -2.67225        1.38362        3.89202
H         -4.12727        0.46292        3.59484
H         -4.08270        2.16998        3.22468
H         -5.04054        0.80644        1.30859
H         -3.92707       -0.19328        0.39886
H         -4.48413        0.79899       -1.93847
H         -3.62016        2.32319       -2.18524
