95
samples_1000_with_h/zinc/R_5_R_5prime/out_0418.mol
C         -1.45430       -3.91860       -1.75000
C         -0.76750       -5.13360       -1.75000
C          0.62760       -5.18960       -1.75000
C          1.38890       -4.02370       -1.75000
C          2.38220       -0.68260       -1.75000
C          1.45430        3.91860       -1.75000
C          0.76750        5.13360       -1.75000
C         -0.62760        5.18960       -1.75000
C         -1.38890        4.02370       -1.75000
C         -2.38220        0.68260       -1.75000
C          0.73680       -2.79650       -1.75000
C         -0.69110       -2.76540       -1.75000
C          1.21410       -1.41130       -1.75000
C          0.01650       -0.66650       -1.75000
N         -1.11940       -1.41380       -1.75000
C         -0.01650        0.66650       -1.75000
C         -1.21410        1.41130       -1.75000
N          1.11940        1.41380       -1.75000
C          2.40560        0.79410       -1.75000
C         -2.40560       -0.79410       -1.75000
C          0.69110        2.76540       -1.75000
C         -0.73680        2.79650       -1.75000
O          3.42840        1.46680       -1.75000
O         -3.42840       -1.46680       -1.75000
C         -0.85430       -4.31860        1.75000
C         -0.16750       -5.53360        1.75000
C          1.22760       -5.58960        1.75000
C          1.98890       -4.42370        1.75000
C          2.98220       -1.08260        1.75000
C          2.05430        3.51860        1.75000
C          1.36750        4.73360        1.75000
C         -0.02760        4.78960        1.75000
C         -0.78890        3.62370        1.75000
C         -1.78220        0.28260        1.75000
C          1.33680       -3.19650        1.75000
C         -0.09110       -3.16540        1.75000
C          1.81410       -1.81130        1.75000
C          0.61650       -1.06650        1.75000
N         -0.51940       -1.81380        1.75000
C          0.58350        0.26650        1.75000
C         -0.61410        1.01130        1.75000
N          1.71940        1.01380        1.75000
C          3.00560        0.39410        1.75000
C         -1.80560       -1.19410        1.75000
C          1.29110        2.36540        1.75000
C         -0.13680        2.39650        1.75000
O          4.02840        1.06680        1.75000
O         -2.82840       -1.86680        1.75000
C          4.37290       -2.17350        0.29330
N          4.57640       -1.27120       -0.77130
C          3.66850       -1.39960       -1.87280
O          3.94470       -2.12470       -2.86180
C          4.25870       -1.79150        1.55500
C          7.31380       -1.64720        0.52660
C          6.40880       -3.94790       -0.07090
C          6.98300       -2.71300       -0.03470
C          5.41750       -4.55840       -0.83570
O         -3.25000        1.90520        2.68790
C         -4.13810        1.96620       -0.17270
S         -3.94120        1.56310       -1.91220
C         -3.07220        1.01870        1.81210
C         -4.16940        0.78560        0.79920
H         -2.48570       -3.88240       -1.75000
H          1.10060       -6.10680       -1.75000
H          2.41990       -4.07010       -1.75000
H          2.48570        3.88240       -1.75000
H         -1.10060        6.10680       -1.75000
H         -2.41990        4.07010       -1.75000
H         -1.88570       -4.28240        1.75000
H          1.70060       -6.50680        1.75000
H          3.01990       -4.47010        1.75000
H          3.08570        3.48240        1.75000
H         -0.50060        5.70680        1.75000
H         -1.81990        3.67010        1.75000
H         -1.30534       -6.01437       -1.75000
H          1.30534        6.01437       -1.75000
H         -0.70534       -6.41437        1.75000
H          1.90534        5.61437        1.75000
H          3.47077       -2.70084        0.06315
H          5.30836       -2.69257        0.31289
H          5.29447       -0.59781       -0.75867
H          4.28744       -2.65199        2.19032
H          5.06748       -1.13486        1.79911
H          7.82228       -0.92159       -0.00251
H          7.07861       -1.49230        1.51943
H          6.04035       -4.06453        0.92687
H          7.22044       -4.40733       -0.59537
H          7.33912       -2.59198       -0.99572
H          4.45528       -4.24347       -0.48950
H          5.49953       -5.62124       -0.74323
H          5.53622       -4.27945       -1.86185
H         -3.32239        2.59862        0.10936
H         -5.10167        2.42477       -0.09430
H         -3.99484       -0.12909        0.27216
H         -5.12284        0.71090        1.27906
