57

C -1.454300046 -3.918600082 -1.750000000
C -0.767500043 -5.133600235 -1.750000000
C 0.627600014 -5.189599991 -1.750000000
C 1.388900042 -4.023699760 -1.750000000
C 2.382200003 -0.682600021 -1.750000000
C 1.454300046 3.918600082 -1.750000000
C 0.767499983 5.133600235 -1.750000000
C -0.627600074 5.189599991 -1.750000000
C -1.388899922 4.023700237 -1.750000000
C -2.382199764 0.682600021 -1.750000000
C 0.736800015 -2.796500206 -1.750000000
C -0.691100001 -2.765399933 -1.750000000
C 1.214100003 -1.411299706 -1.750000000
C 0.016499996 -0.666500092 -1.750000000
N -1.119400144 -1.413800240 -1.750000000
C -0.016499996 0.666500092 -1.750000000
C -1.214100003 1.411299944 -1.750000000
N 1.119400024 1.413800001 -1.750000000
C 2.405600071 0.794099808 -1.750000000
C -2.405600071 -0.794099808 -1.750000000
C 0.691100001 2.765399933 -1.750000000
C -0.736800075 2.796499968 -1.750000000
O 3.428400040 1.466799974 -1.750000000
O -3.428400040 -1.466799736 -1.750000000
C -0.854300022 -4.318600655 1.750000000
C -0.167500019 -5.533599854 1.750000000
C 1.227599978 -5.589600563 1.750000000
C 1.988899946 -4.423699379 1.750000000
C 2.982199907 -1.082600117 1.750000000
C 2.054300070 3.518599987 1.750000000
C 1.367499948 4.733600140 1.750000000
C -0.027600050 4.789599895 1.750000000
C -0.788900018 3.623699903 1.750000000
C -1.782199979 0.282599926 1.750000000
C 1.336799979 -3.196499825 1.750000000
C -0.091099977 -3.165400505 1.750000000
C 1.814100027 -1.811300278 1.750000000
C 0.616500020 -1.066499710 1.750000000
N -0.519400001 -1.813799858 1.750000000
C 0.583500028 0.266499996 1.750000000
C -0.614099979 1.011300087 1.750000000
N 1.719400048 1.013800144 1.750000000
C 3.005599976 0.394100189 1.750000000
C -1.805600047 -1.194099903 1.750000000
C 1.291100025 2.365400076 1.750000000
C -0.136800051 2.396500111 1.750000000
O 4.028399944 1.066800117 1.750000000
O -2.828399658 -1.866799831 1.750000000
C 3.816398621 6.097871780 -1.129010201
O 3.401740074 6.059791565 2.790201426
O 1.455721974 7.369626999 2.215619087
C 2.968525171 6.315845490 -2.406805038
C 1.528087854 6.457373619 -1.864635348
C 1.941270351 8.599918365 -0.515157938
C 1.836727858 7.077481270 -0.498839974
N 3.030898094 6.409781456 0.101036325
S 2.322925568 6.215286255 1.736484885
