76
samples_1000_with_h/geom/R_5/out_0565.mol
C         -1.45430       -3.91860       -1.75000
C         -0.76750       -5.13360       -1.75000
C          0.62760       -5.18960       -1.75000
C          1.38890       -4.02370       -1.75000
C          2.38220       -0.68260       -1.75000
C          1.45430        3.91860       -1.75000
C          0.76750        5.13360       -1.75000
C         -0.62760        5.18960       -1.75000
C         -1.38890        4.02370       -1.75000
C         -2.38220        0.68260       -1.75000
C          0.73680       -2.79650       -1.75000
C         -0.69110       -2.76540       -1.75000
C          1.21410       -1.41130       -1.75000
C          0.01650       -0.66650       -1.75000
N         -1.11940       -1.41380       -1.75000
C         -0.01650        0.66650       -1.75000
C         -1.21410        1.41130       -1.75000
N          1.11940        1.41380       -1.75000
C          2.40560        0.79410       -1.75000
C         -2.40560       -0.79410       -1.75000
C          0.69110        2.76540       -1.75000
C         -0.73680        2.79650       -1.75000
O          3.42840        1.46680       -1.75000
O         -3.42840       -1.46680       -1.75000
C         -0.85430       -4.31860        1.75000
C         -0.16750       -5.53360        1.75000
C          1.22760       -5.58960        1.75000
C          1.98890       -4.42370        1.75000
C          2.98220       -1.08260        1.75000
C          2.05430        3.51860        1.75000
C          1.36750        4.73360        1.75000
C         -0.02760        4.78960        1.75000
C         -0.78890        3.62370        1.75000
C         -1.78220        0.28260        1.75000
C          1.33680       -3.19650        1.75000
C         -0.09110       -3.16540        1.75000
C          1.81410       -1.81130        1.75000
C          0.61650       -1.06650        1.75000
N         -0.51940       -1.81380        1.75000
C          0.58350        0.26650        1.75000
C         -0.61410        1.01130        1.75000
N          1.71940        1.01380        1.75000
C          3.00560        0.39410        1.75000
C         -1.80560       -1.19410        1.75000
C          1.29110        2.36540        1.75000
C         -0.13680        2.39650        1.75000
O          4.02840        1.06680        1.75000
O         -2.82840       -1.86680        1.75000
C          4.28950       -1.66170        1.24450
O          3.99170       -2.39300       -1.15160
C          3.54500       -1.38940       -1.15250
C          4.46030       -1.24790       -0.24630
H         -2.48570       -3.88240       -1.75000
H          1.10060       -6.10680       -1.75000
H          2.41990       -4.07010       -1.75000
H          2.48570        3.88240       -1.75000
H         -1.10060        6.10680       -1.75000
H         -2.41990        4.07010       -1.75000
H         -1.88570       -4.28240        1.75000
H          1.70060       -6.50680        1.75000
H          3.01990       -4.47010        1.75000
H          3.08570        3.48240        1.75000
H         -0.50060        5.70680        1.75000
H         -1.81990        3.67010        1.75000
H         -1.30534       -6.01437       -1.75000
H          1.30534        6.01437       -1.75000
H         -3.28063        1.19039       -1.75000
H         -0.70534       -6.41437        1.75000
H          1.90534        5.61437        1.75000
H         -2.68063        0.79039        1.75000
H          4.23543       -2.73024        1.25876
H          5.09088       -1.33669        1.87462
H          4.46455       -1.32676        0.24346
H          4.43101       -0.24948        0.13737
H          5.42128       -1.43623       -0.67753
H          4.28444       -1.94114        0.54956
